New England/MatPower Cases/Medium/Spring4Generous.m
% Case saved by PowerWorld Simulator, version 19, build date July 14, 2016
function mpc = Spring4
mpc.version = '2';
mpc.baseMVA =  100.00;

%% bus data 
mpc.bus = [
      1 2      0.00     0.00      0.00     0.00    1 1.0364113   -17.50047  345.00   1   1.100   0.980    24.12     0.00 0  0
      2 1     62.89    18.16      0.00     0.00    1 1.0320242   -17.69412  345.00   1   1.060   0.920    24.19     0.06 0  0
      3 2      0.00     0.00      0.00     0.00    1 1.0200000    -6.71806  138.00   1   1.100   0.980    23.88     0.00 0  0
      4 1     45.23    11.52      0.00     0.00    1 1.0135599   -12.23918  138.00   1   1.060   0.920    23.47    -0.00 0  0
      5 1     46.38    15.33      0.00     0.00    1 1.0119449    -9.97502  230.00   1   1.060   0.920    23.45    -0.00 0  0
      6 1     42.24    12.72      0.00     0.00    1 1.0144876    -7.87502  138.00   1   1.060   0.920    23.39     0.01 0  0
      7 2     65.49    21.70      0.00     0.00    1 1.0200000    -8.97495  138.00   1   1.100   0.980    23.45     0.00 0  0
      8 2     62.49    17.95      0.00     0.00    1 1.0200000    -7.14952  230.00   1   1.100   0.980    23.45     0.00 0  0
      9 1      0.00     0.00      0.00     0.00    1 1.0338385    -8.29021  345.00   1   1.060   0.920    23.45    -0.00 0  0
     10 3     43.87    13.78      0.00     0.00    1 1.0200000     0.00000  138.00   1   1.100   0.980    23.28     0.00 0  0
     11 1      0.00     0.00      0.00     0.00    1 1.0188322    -0.79357  138.00   1   1.060   0.920    23.27    -0.00 0  0
     12 1      1.31     0.39      0.00     0.00    1 1.0188853    -1.41690  138.00   1   1.060   0.920    23.27    -0.00 0  0
     13 1      0.00     0.00      0.00     0.00    1 1.0201110    -3.04858  345.00   1   1.060   0.920    23.28    -0.00 0  0
     14 1     60.65    16.72      0.00     0.00    1 1.0227335    -7.84005  230.00   1   1.060   0.920    23.29    -0.00 0  0
     15 1     76.32    16.39      0.00     0.00    1 1.0171911   -10.01793  230.00   1   1.060   0.920    23.42     0.01 0  0
     16 1     95.06    19.65      0.00     0.00    1 1.0137735   -12.52224  138.00   1   1.060   0.920    23.54     0.03 0  0
     17 1     43.40    12.87      0.00     0.00    1 1.0017371   -14.35279  138.00   1   1.060   0.920    23.77     0.05 0  0
     18 1     51.76    14.13      0.00     0.00    1 1.0050625   -12.61702  138.00   1   1.060   0.920    23.82     0.01 0  0
     19 1     54.51    14.84      0.00     0.00    1 0.9978413   -18.54135  138.00   1   1.060   0.920    21.83    -0.00 0  0
     20 1     51.63    16.44      0.00     0.00    1 0.9913626   -19.60156   69.00   1   1.060   0.920    21.83    -0.00 0  0
     21 1     80.48    17.85      0.00     0.00    1 1.0013560   -16.87536  138.00   1   1.060   0.920    23.07    -0.01 0  0
     22 1     70.04    18.26      0.00     0.00    1 1.0087336    -7.44398  230.00   1   1.060   0.920    22.75    -0.02 0  0
     23 1     49.73    12.60      0.00     0.00    1 0.9919662   -10.03649  230.00   1   1.060   0.920    22.82    -0.01 0  0
     24 2     58.22    16.83      0.00     0.00    1 1.0200000    -9.90081  230.00   1   1.100   0.980    23.08     0.00 0  0
     25 1     43.46    10.61      0.00     0.00    1 1.0081862   -19.71151  230.00   1   1.060   0.920    24.16     0.13 0  0
     26 2     52.47    14.18      0.00     0.00    1 1.0200000   -29.05242  345.00   1   1.100   0.980    25.44     0.00 0  0
     27 1     46.76    14.29      0.00     0.00    1 1.0180295   -29.72759  230.00   1   1.060   0.920    25.86     0.17 0  0
     28 2     83.90    24.91      0.00     0.00    1 1.0200000   -33.75189  138.00   1   1.100   0.980    26.66     0.00 0  0
     29 1     48.58    11.00      0.00     0.00    1 1.0224548   -36.93414  138.00   1   1.060   0.920    26.67    -0.01 0  0
     30 2      0.00     0.00      0.00     0.00    1 1.0200000   -16.39020   14.00   1   1.100   0.980    24.19     0.00 0  0
     31 2      0.00     0.00      0.00     0.00    1 1.0144876    -7.87502   14.00   1   1.100   0.980    23.39     0.01 0  0
     32 2      0.00     0.00      0.00     0.00    1 1.0200000     0.00000   14.00   1   1.100   0.980    23.28     0.00 0  0
     33 2     75.69    16.36      0.00     0.00    1 1.0200000   -15.99712   14.00   1   1.100   0.980    21.84     0.00 0  0
     34 2     40.49    12.54      0.00     0.00    1 0.9886847   -20.02103   14.00   1   1.100   0.980    21.83    -0.00 0  0
     35 2      0.00     0.00      0.00     0.00    1 1.0200000     0.37035   14.00   1   1.100   0.980    22.76     0.00 0  0
     36 2      0.00     0.00      0.00     0.00    1 0.9919662   -10.03649   14.00   1   1.100   0.980    22.82    -0.01 0  0
     37 2      0.00     0.00      0.00     0.00    1 1.0081862   -19.71151   14.00   1   1.100   0.980    24.16     0.13 0  0
     38 2      0.00     0.00      0.00     0.00    1 1.0224548   -36.93414   14.00   1   1.100   0.980    26.67    -0.01 0  0
     39 1     47.54    13.97      0.00     0.00    1 1.0263216   -25.00616  345.00   1   1.060   0.920    24.89     0.10 0  0
     40 1     49.31    14.66      0.00     0.00    1 1.0179912   -29.39435  345.00   1   1.060   0.920    25.36     0.03 0  0
     41 1     67.26    16.67      0.00     0.00    1 1.0184430   -28.63029  345.00   1   1.060   0.920    25.72     0.14 0  0
     42 1     75.63    20.82      0.00     0.00    1 1.0360818   -33.48301  345.00   1   1.060   0.920    25.84     0.03 0  0
     43 1     64.45    21.61      0.00     0.00    1 1.0203290   -28.76961  345.00   1   1.060   0.920    25.35     0.03 0  0
     44 1     39.56    12.87      0.00     0.00    1 1.0170920   -10.20064  230.00   1   1.060   0.920    23.46     0.00 0  0
     45 1     62.71    16.99      0.00     0.00    1 1.0194104   -10.01809  345.00   1   1.060   0.920    23.46     0.00 0  0
     46 1     55.81    14.50      0.00     0.00    1 1.0035056   -11.58580  138.00   1   1.060   0.920    23.45    -0.00 0  0
     47 1     48.59    13.67      0.00     0.00    1 0.9883405   -13.77770  138.00   1   1.060   0.920    23.45     0.00 0  0
     48 1     61.02    15.45      0.00     0.00    1 1.0174817   -12.57631  345.00   1   1.060   0.920    23.48     0.00 0  0
     49 2     34.84     9.56      0.00     0.00    1 1.0200000    -6.61401  138.00   1   1.100   0.980    23.46     0.00 0  0
     50 1     59.09    15.45      0.00     0.00    1 1.0070438   -10.01821  138.00   1   1.060   0.920    23.46     0.00 0  0
     51 1     46.83    13.39      0.00     0.00    1 1.0179158   -12.36730  138.00   1   1.060   0.920    23.45     0.00 0  0
     52 2     63.89    19.46      0.00     0.00    1 1.0200000    -9.86530  345.00   1   1.100   0.980    23.46     0.00 0  0
     53 1    100.29    23.79      0.00     0.00    1 1.0110771   -12.28171  138.00   1   1.060   0.920    23.45     0.00 0  0
     54 2     35.23    11.34      0.00     0.00    1 1.0200000    -6.63002  230.00   1   1.100   0.980    23.45     0.00 0  0
     55 1     60.24    17.48      0.00     0.00    1 1.0177948    -9.92148  230.00   1   1.060   0.920    23.46     0.00 0  0
     56 2     69.96    14.86      0.00     0.00    1 1.0200000    -7.24301  345.00   1   1.100   0.980    23.42     0.00 0  0
     57 1     30.80    10.53      0.00     0.00    1 0.9991029   -12.97288  138.00   1   1.060   0.920    23.44     0.00 0  0
     58 1     80.24    24.23      0.00     0.00    1 1.0135301    -8.07296  345.00   1   1.060   0.920    23.38     0.00 0  0
     59 1     45.22    14.37      0.00     0.00    1 1.0194117    -9.52346  345.00   1   1.060   0.920    23.46     0.02 0  0
     60 1     52.93    16.32      0.00     0.00    1 0.9971254   -12.68541  138.00   1   1.060   0.920    23.43     0.01 0  0
     61 1     65.37    17.34      0.00     0.00    1 1.0188672   -10.88541  230.00   1   1.060   0.920    23.46     0.01 0  0
     62 1     61.16    15.88      0.00     0.00    1 1.0108434    -8.56989  345.00   1   1.060   0.920    23.38     0.00 0  0
     63 1     43.94    13.64      0.00     0.00    1 0.9962191   -13.24929  138.00   1   1.060   0.920    23.45     0.00 0  0
     64 1    106.21    28.81      0.00     0.00    1 1.0022002   -10.78234  138.00   1   1.060   0.920    23.40     0.01 0  0
     65 1     36.17    11.59      0.00     0.00    1 1.0119647    -8.68978  138.00   1   1.060   0.920    23.46     0.00 0  0
     66 1     43.01    12.80      0.00     0.00    1 1.0148021    -7.98660  345.00   1   1.060   0.920    23.39     0.00 0  0
     67 1     54.71    13.55      0.00     0.00    1 1.0084846   -12.55063  138.00   1   1.060   0.920    23.45     0.00 0  0
     68 1     68.04    20.37      0.00     0.00    1 1.0135949   -11.75884  138.00   1   1.060   0.920    23.45     0.00 0  0
     69 2     32.89    10.61      0.00     0.00    1 1.0161925    -3.67023  345.00   1   1.100   0.980    23.26    -0.00 0  0
     70 1     51.41    14.24      0.00     0.00    1 1.0174471    -4.48835  138.00   1   1.060   0.920    23.32     0.01 0  0
     71 1     37.73    11.51      0.00     0.00    1 1.0168412    -7.70360  345.00   1   1.060   0.920    23.39     0.00 0  0
     72 2     32.69    11.34      0.00     0.00    1 1.0200000   -12.30222  138.00   1   1.100   0.980    23.45     0.00 0  0
     73 1     41.51    12.22      0.00     0.00    1 1.0183586   -12.39362  138.00   1   1.060   0.920    23.45     0.00 0  0
     74 1     45.72    15.22      0.00     0.00    1 1.0202068   -11.01219  345.00   1   1.060   0.920    23.47     0.00 0  0
     75 1     49.95    16.97      0.00     0.00    1 1.0086052   -12.39929  138.00   1   1.060   0.920    23.47     0.00 0  0
     76 2     73.26    19.29      0.00     0.00    1 1.0200000    -7.18523  345.00   1   1.100   0.980    23.40     0.00 0  0
     77 1     50.15    13.57      0.00     0.00    1 1.0123614   -37.44740  138.00   1   1.060   0.920    26.66    -0.00 0  0
     78 2     63.12    16.21      0.00     0.00    1 1.0497088   -36.14165  345.00   1   1.100   0.980    26.23     0.02 0  0
     79 1     86.14    23.00      0.00     0.00    1 1.0784490   -41.15672  345.00   1   1.060   0.920    26.39    -0.02 0  0
     80 2     68.86    15.73      0.00     0.00    1 1.0200000   -38.41411  345.00   1   1.100   0.980    26.49     0.00 0  0
     81 1     74.30    19.94      0.00     0.00    1 1.0222528   -37.88202  345.00   1   1.060   0.920    26.51    -0.01 0  0
     82 2     48.59    13.19      0.00     0.00    1 1.0200000   -34.91600  345.00   1   1.100   0.980    26.51     0.00 0  0
     83 1     51.23    16.34      0.00     0.00    1 1.0302520   -36.17403  345.00   1   1.060   0.920    26.57    -0.01 0  0
     84 2     37.57    11.36      0.00     0.00    1 1.0273894   -36.42914  138.00   1   1.100   0.980    26.61    -0.01 0  0
     85 1     42.87    10.38      0.00     0.00    1 1.0127960   -36.14233  230.00   1   1.060   0.920    26.70     0.00 0  0
     86 1     71.74    17.35      0.00     0.00    1 1.0046642   -35.96074  138.00   1   1.060   0.920    26.79    -0.01 0  0
     87 1     81.13    21.28      0.00     0.00    1 1.0737937   -41.32654  345.00   1   1.060   0.920    26.44    -0.02 0  0
     88 1     62.03    15.47      0.00     0.00    1 1.0167151   -34.55310  138.00   1   1.060   0.920    26.67    -0.00 0  0
     89 1     46.77    14.35      0.00     0.00    1 0.9907375   -39.99084  138.00   1   1.060   0.920    26.72     0.01 0  0
     90 1     38.54    11.14      0.00     0.00    1 0.9873158   -10.45782  230.00   1   1.060   0.920    22.82    -0.01 0  0
     91 1     50.83    13.35      0.00     0.00    1 0.9801012   -11.59997  230.00   1   1.060   0.920    22.81    -0.01 0  0
     92 1     46.96    13.43      0.00     0.00    1 1.0058190   -10.98006  345.00   1   1.060   0.920    22.73    -0.03 0  0
     93 1     53.90    14.70      0.00     0.00    1 1.0055569   -12.18206  345.00   1   1.060   0.920    22.70    -0.04 0  0
     94 1     70.10    18.97      0.00     0.00    1 1.0064593   -17.09914  138.00   1   1.060   0.920    22.43    -0.04 0  0
     95 1     61.67    17.74      0.00     0.00    1 1.0019764   -16.47341  138.00   1   1.060   0.920    22.55    -0.08 0  0
     96 1     73.49    16.72      0.00     0.00    1 1.0038694   -16.17945  138.00   1   1.060   0.920    22.58    -0.10 0  0
     97 1     72.54    14.03      0.00     0.00    1 1.0096723   -13.51774  345.00   1   1.060   0.920    22.82    -0.05 0  0
     98 1     74.22    21.86      0.00     0.00    1 1.0185123   -13.02664  345.00   1   1.060   0.920    23.12    -0.00 0  0
     99 1     71.59    13.42      0.00     0.00    1 1.0007346   -16.14669  345.00   1   1.060   0.920    22.52    -0.05 0  0
    100 1     51.78    14.21      0.00     0.00    1 1.0005284    -7.34446  138.00   1   1.060   0.920    22.86     0.01 0  0
    101 1     49.25    13.13      0.00     0.00    1 1.0042265   -12.39821  345.00   1   1.060   0.920    22.70    -0.04 0  0
    102 1     28.95    10.13      0.00     0.00    1 1.0002888   -17.92926  138.00   1   1.060   0.920    22.32    -0.08 0  0
    103 2     84.03    24.34      0.00     0.00    1 1.0200000   -15.61834  138.00   1   1.100   0.980    22.46     0.00 0  0
    104 1     59.04    13.10      0.00     0.00    1 0.9892948   -19.58186  138.00   1   1.060   0.920    21.83    -0.10 0  0
    105 1     41.29    10.69      0.00     0.00    1 0.9940255   -19.06553  138.00   1   1.060   0.920    21.87    -0.03 0  0
    106 1     40.58    12.95      0.00     0.00    1 0.9839901   -21.93126  138.00   1   1.060   0.920    24.66     0.05 0  0
    107 1     50.32    12.30      0.00     0.00    1 0.9836094   -21.35042  138.00   1   1.060   0.920    23.01    -0.14 0  0
    108 1     91.10    20.75      0.00     0.00    1 0.9896781   -19.89020  230.00   1   1.060   0.920    21.43    -0.33 0  0
    109 1     62.95    18.27      0.00     0.00    1 0.9742711   -24.60346  138.00   1   1.060   0.920    29.32    -0.85 0  0
    110 1     30.27     9.38      0.00     0.00    1 0.9941037   -18.92920  138.00   1   1.060   0.920    21.83    -0.00 0  0
    111 1     61.51    15.37      0.00     0.00    1 0.9915181   -19.50086  345.00   1   1.060   0.920    23.34    -0.03 0  0
    112 1     87.22    21.24      0.00     0.00    1 0.9845013   -20.55210  138.00   1   1.060   0.920    21.97    -0.12 0  0
    113 1     28.68     8.36      0.00     0.00    1 0.9793551   -21.12196  138.00   1   1.060   0.920    21.83    -0.02 0  0
    114 1     30.66    10.13      0.00     0.00    1 0.9968227   -18.22836  138.00   1   1.060   0.920    22.21    -0.08 0  0
    115 1     35.71     9.59      0.00     0.00    1 1.0074661   -10.70526  345.00   1   1.060   0.920    22.74    -0.03 0  0
    116 1     78.19    18.23      0.00     0.00    1 0.9798621   -26.70848  230.00   1   1.060   0.920    28.54    -0.23 0  0
    117 1     56.31    14.66      0.00     0.00    1 0.9890216   -26.71047  138.00   1   1.060   0.920    26.93    -0.10 0  0
    118 1     29.95     8.98      0.00     0.00    1 0.9926857   -19.78154  138.00   1   1.060   0.920    21.66     0.08 0  0
    119 1     73.41    17.09      0.00     0.00    1 0.9893749   -20.59210  138.00   1   1.060   0.920    22.00     0.21 0  0
    120 2     41.29    11.62      0.00     0.00    1 0.9819319   -24.66264  230.00   1   1.100   0.980    29.12    -0.35 0  0
    121 1     52.66    12.86      0.00     0.00    1 0.9792585   -24.98026  230.00   1   1.060   0.920    29.13    -0.34 0  0
    122 1     41.54    10.42      0.00     0.00    1 0.9756528   -26.63991  138.00   1   1.060   0.920    27.89    -0.26 0  0
    123 1     65.75    13.41      0.00     0.00    1 0.9826326   -27.30900  230.00   1   1.060   0.920    28.21    -0.13 0  0
    124 1     66.55    16.63      0.00     0.00    1 0.9902002   -23.06095  230.00   1   1.060   0.920    26.40     0.42 0  0
    125 1     69.85    19.76      0.00     0.00    1 0.9964707   -18.51427  138.00   1   1.060   0.920    22.90    -0.08 0  0
    126 1     56.40    16.09      0.00     0.00    1 0.9788110   -24.95532  230.00   1   1.060   0.920    30.02    -0.51 0  0
    127 1     66.30    16.05      0.00     0.00    1 0.9825405   -25.38934  230.00   1   1.060   0.920    28.36    -0.06 0  0
    128 2     72.94    16.15      0.00     0.00    1 1.0200000    -9.39259  138.00   1   1.100   0.980    23.36     0.00 0  0
    129 1     51.47    13.70      0.00     0.00    1 0.9949457   -18.10041  138.00   1   1.060   0.920    23.01    -0.05 0  0
    130 2     57.39    16.84      0.00     0.00    1 1.0200000   -12.78163  138.00   1   1.100   0.980    23.18     0.00 0  0
    131 1     83.16    15.87      0.00     0.00    1 0.9891990   -19.98426  138.00   1   1.060   0.920    22.37    -0.14 0  0
    132 1     75.75    16.59      0.00     0.00    1 1.0025183   -18.65981  230.00   1   1.060   0.920    24.25     0.18 0  0
    133 1     44.90    11.74      0.00     0.00    1 1.0001913   -19.56628  230.00   1   1.060   0.920    24.22     0.17 0  0
    134 1     54.84    11.32      0.00     0.00    1 1.0000600   -18.35859  230.00   1   1.060   0.920    23.90     0.12 0  0
    135 1     37.16    12.03      0.00     0.00    1 1.0133216   -15.32912  345.00   1   1.060   0.920    23.17     0.00 0  0
    136 1     47.80    12.88      0.00     0.00    1 0.9911856   -19.30960  138.00   1   1.060   0.920    21.91    -0.07 0  0
    137 1     36.30    12.22      0.00     0.00    1 1.0174844   -14.40410  345.00   1   1.060   0.920    23.15     0.00 0  0
    138 1     71.14    14.27      0.00     0.00    1 0.9973446   -17.15287  345.00   1   1.060   0.920    22.47    -0.05 0  0
    139 1     59.24    16.60      0.00     0.00    1 1.0287487   -18.42507  345.00   1   1.060   0.920    24.19     0.06 0  0
    140 1     83.31    20.41      0.00     0.00    1 1.0065223    -6.50717  138.00   1   1.060   0.920    22.86     0.01 0  0
    141 2     73.74    18.72      0.00     0.00    1 1.0200000    -4.36919  345.00   1   1.100   0.980    22.77     0.00 0  0
    142 1     45.22    14.81      0.00     0.00    1 0.9947790   -21.72103  230.00   1   1.060   0.920    25.63     0.44 0  0
    143 2     69.71    17.04      0.00     0.00    1 1.0200000   -10.81200  230.00   1   1.100   0.980    23.45     0.00 0  0
    144 1     85.23    20.77      0.00     0.00    1 1.0147583   -11.65762  230.00   1   1.060   0.920    23.46     0.00 0  0
    145 1     63.47    18.05      0.00     0.00    1 1.0042337   -12.32389  138.00   1   1.060   0.920    23.54     0.03 0  0
    146 2     67.64    15.69      0.00     0.00    1 1.0200000   -13.90128  345.00   1   1.100   0.980    23.15     0.00 0  0
    147 1     37.27    11.72      0.00     0.00    1 0.9886288   -20.30935  138.00   1   1.060   0.920    21.06     0.03 0  0
    148 1     46.50    12.49      0.00     0.00    1 1.0062762   -11.74152  345.00   1   1.060   0.920    22.71    -0.04 0  0
    149 2     86.96    20.39      0.00     0.00    1 1.0200000   -10.54641  138.00   1   1.100   0.980    23.52     0.00 0  0
    150 1     59.45    16.61      0.00     0.00    1 1.0139764   -13.37223  345.00   1   1.060   0.920    23.48     0.00 0  0
    151 1     48.14    12.90      0.00     0.00    1 1.0183201   -14.29387  345.00   1   1.060   0.920    23.15     0.00 0  0
    152 1     37.48    10.04      0.00     0.00    1 0.9825378   -20.72078  138.00   1   1.060   0.920    21.83    -0.02 0  0
    153 1     44.11    12.65      0.00     0.00    1 1.0113191   -15.74405  345.00   1   1.060   0.920    23.18     0.01 0  0
    154 1     56.49    14.28      0.00     0.00    1 1.0044838   -33.36819  230.00   1   1.060   0.920    26.70     0.03 0  0
    155 1     52.37    14.27      0.00     0.00    1 0.9913261   -35.09821  138.00   1   1.060   0.920    26.90    -0.02 0  0
    156 1     53.51    14.31      0.00     0.00    1 1.0104558   -31.15571  345.00   1   1.060   0.920    26.82    -0.03 0  0
    157 2     54.34    14.44      0.00     0.00    1 0.9959899   -30.69380  138.00   1   1.100   0.980    27.21     0.01 0  0
    158 1     53.91    14.50      0.00     0.00    1 1.0038003   -29.20684  138.00   1   1.060   0.920    26.46     0.01 0  0
    159 1     58.22    16.75      0.00     0.00    1 1.0208732   -28.26919  345.00   1   1.060   0.920    26.09     0.09 0  0
    160 1     69.01    21.32      0.00     0.00    1 0.9983731   -32.54809  230.00   1   1.060   0.920    26.32     0.08 0  0
    161 1     33.16    10.32      0.00     0.00    1 1.0092842   -29.75581  138.00   1   1.060   0.920    26.51     0.01 0  0
    162 2     50.55    12.35      0.00     0.00    1 1.0200000   -26.87950  345.00   1   1.100   0.980    26.82     0.00 0  0
    163 1     66.48    16.10      0.00     0.00    1 1.0056680   -28.17206  230.00   1   1.060   0.920    27.18     0.02 0  0
    164 1     46.16    15.63      0.00     0.00    1 0.9906784   -27.97765  138.00   1   1.060   0.920    26.72    -0.01 0  0
    165 2     51.23    14.50      0.00     0.00    1 1.0066297   -27.38555  230.00   1   1.100   0.980    26.98    -0.03 0  0
    166 2     48.15    13.19      0.00     0.00    1 1.0200000   -26.81739  138.00   1   1.100   0.980    26.43     0.00 0  0
    167 1     48.72    12.82      0.00     0.00    1 1.0497818   -35.70967  345.00   1   1.060   0.920    26.19     0.01 0  0
    168 1     29.88     9.54      0.00     0.00    1 0.9999846   -20.41890  230.00   1   1.060   0.920    24.17     0.13 0  0
    169 1     50.52    13.87      0.00     0.00    1 1.0018692   -32.87537  138.00   1   1.060   0.920    26.89    -0.02 0  0
    170 1     58.80    17.27      0.00     0.00    1 0.9851302    -8.26429  138.00   1   1.060   0.920    23.03    -0.01 0  0
    171 1     48.99    15.02      0.00     0.00    1 0.9897004    -8.12941  138.00   1   1.060   0.920    22.96     0.01 0  0
    172 1     59.50    16.49      0.00     0.00    1 0.9975012    -6.13008  138.00   1   1.060   0.920    23.19    -0.01 0  0
    173 1     50.37    15.25      0.00     0.00    1 0.9976166    -5.65405  138.00   1   1.060   0.920    23.21    -0.02 0  0
    174 1     64.19    16.04      0.00     0.00    1 1.0196594    -9.62182  345.00   1   1.060   0.920    23.17    -0.01 0  0
    175 2     50.68    16.59      0.00     0.00    1 1.0200000    -9.70776  138.00   1   1.100   0.980    22.98     0.00 0  0
    176 2     63.15    20.99      0.00     0.00    1 1.0164571   -14.42181  345.00   1   1.100   0.980    23.15    -0.00 0  0
    177 1     94.58    27.34      0.00     0.00    1 1.0151331   -10.61719  230.00   1   1.060   0.920    23.11     0.00 0  0
    178 1     47.00    13.12      0.00     0.00    1 1.0091369   -12.74809  138.00   1   1.060   0.920    23.09    -0.01 0  0
    179 1      4.53     1.17      0.00     0.00    1 1.0086247   -12.78860  138.00   1   1.060   0.920    23.09    -0.01 0  0
    180 1      6.98     2.02      0.00     0.00    1 1.0197954    -9.65759  345.00   1   1.060   0.920    23.17    -0.01 0  0
    181 1      0.00     0.00      0.00     0.00    1 1.0357577   -10.78346  345.00   1   1.060   0.920    23.90     0.02 0  0
    182 1      0.00     0.00      0.00     0.00    1 1.0219071   -11.00118  345.00   1   1.060   0.920    23.48     0.00 0  0
    183 1      0.00     0.00      0.00     0.00    1 1.0213178   -10.33076  345.00   1   1.060   0.920    23.46     0.00 0  0
    184 1      0.00     0.00      0.00     0.00    1 1.0172785    -8.45500  230.00   1   1.060   0.920    23.40     0.01 0  0
    185 1      0.00     0.00      0.00     0.00    1 1.0172084    -7.03097  345.00   1   1.060   0.920    23.38     0.00 0  0
    186 1      0.00     0.00      0.00     0.00    1 1.0195916    -9.84156  345.00   1   1.060   0.920    23.45     0.00 0  0
    187 1      0.00     0.00      0.00     0.00    1 1.0236167    -8.20771  345.00   1   1.060   0.920    23.45     0.00 0  0
    188 1      0.00     0.00      0.00     0.00    1 1.0199622    -2.67310  345.00   1   1.060   0.920    23.27    -0.00 0  0
    189 1      0.00     0.00      0.00     0.00    1 1.0195363    -3.16639  345.00   1   1.060   0.920    23.27    -0.00 0  0
    190 1      0.00     0.00      0.00     0.00    1 1.0218522    -6.72778  345.00   1   1.060   0.920    23.30     0.00 0  0
    191 1      0.00     0.00      0.00     0.00    1 1.0209373    -9.07333  345.00   1   1.060   0.920    23.46     0.02 0  0
    192 1      0.00     0.00      0.00     0.00    1 1.0187080   -12.27147  230.00   1   1.060   0.920    23.48     0.02 0  0
    193 1      0.00     0.00      0.00     0.00    1 1.0218478   -12.25276  345.00   1   1.060   0.920    23.60     0.07 0  0
    194 1      0.00     0.00      0.00     0.00    1 1.0202731   -14.40379  345.00   1   1.060   0.920    23.87     0.13 0  0
    195 1      0.00     0.00      0.00     0.00    1 0.9944135   -19.08693  230.00   1   1.060   0.920    21.45    -0.33 0  0
    196 1      0.00     0.00      0.00     0.00    1 0.9954261   -17.91518  345.00   1   1.060   0.920    22.41    -0.05 0  0
    197 1      0.00     0.00      0.00     0.00    1 1.0047169   -17.03495  230.00   1   1.060   0.920    23.26     0.06 0  0
    198 1      0.00     0.00      0.00     0.00    1 1.0047915   -15.98497  345.00   1   1.060   0.920    22.83    -0.03 0  0
    199 1      0.00     0.00      0.00     0.00    1 1.0091471   -10.36242  345.00   1   1.060   0.920    22.74    -0.03 0  0
    200 1      0.00     0.00      0.00     0.00    1 1.0185749   -11.26562  345.00   1   1.060   0.920    23.08    -0.01 0  0
...
];

%% generator data 
mpc.gen = [
      1      3.18   -103.00    103.00   -103.00  1.0200    100.00 1    338.00      3.00     81.31   9999.90   -500.00   1500.00   -500.00   1500.00 0 0 0 0   0.0000 0 0 0 0
      3    315.51    -43.59    392.00   -209.00  1.0200    100.00 1    686.00    298.00      0.00      0.00      0.00      0.00      0.00      0.00 0 0 0 0   0.0000 0 0 0 0
      7    147.17     29.56    385.00   -205.00  1.0200    100.00 1    674.00    139.00      0.00      0.00      0.00      0.00      0.00      0.00 0 0 0 0   0.0000 0 0 0 0
      8    200.10      1.05    349.00   -186.00  1.0200    100.00 1    611.00    189.00      0.00      0.00      0.00      0.00      0.00      0.00 0 0 0 0   0.0000 0 0 0 0
     10   1626.96     25.39   1298.00   -692.00  1.0200    100.00 1   2271.00   1406.00      0.00      0.00      0.00      0.00      0.00      0.00 0 0 0 0   0.0000 0 0 0 0
     24    304.92     57.62    309.00   -165.00  1.0200    100.00 1    541.00    288.00      0.00      0.00      0.00      0.00      0.00      0.00 0 0 0 0   0.0000 0 0 0 0
     26    127.05    -89.11    171.00    -91.00  1.0200    100.00 1    300.00    120.00      0.00      0.00      0.00      0.00      0.00      0.00 0 0 0 0   0.0000 0 0 0 0
     28    228.69     18.72    338.00   -180.00  1.0200    100.00 1    592.00    216.00      0.00      0.00      0.00      0.00      0.00      0.00 0 0 0 0   0.0000 0 0 0 0
     30    132.34    -66.26    150.00    -80.00  1.0200    100.00 1    263.00    125.00      0.00      0.00      0.00      0.00      0.00      0.00 0 0 0 0   0.0000 0 0 0 0
     31      0.00      0.00    457.00   -244.00  1.0200    100.00 0    800.00    241.00      0.00      0.00      0.00      0.00      0.00      0.00 0 0 0 0   0.0000 0 0 0 0
     32      0.00      0.00    390.00   -208.00  1.0200    100.00 0    683.00    163.00      0.00      0.00      0.00      0.00      0.00      0.00 0 0 0 0   0.0000 0 0 0 0
     33    401.26    166.54    379.00   -202.00  1.0200    100.00 1    664.00    379.00      0.00      0.00      0.00      0.00      0.00      0.00 0 0 0 0   0.0000 0 0 0 0
     34      0.00      0.00    707.00   -377.00  1.0200    100.00 0   1237.00    295.00      0.00      0.00      0.00      0.00      0.00      0.00 0 0 0 0   0.0000 0 0 0 0
     35    978.28    147.17    792.00   -422.00  1.0200    100.00 1   1386.00    924.00      0.00      0.00      0.00      0.00      0.00      0.00 0 0 0 0   0.0000 0 0 0 0
     36      0.00      0.00    336.00   -179.00  1.0200    100.00 0    588.00    140.00      0.00      0.00      0.00      0.00      0.00      0.00 0 0 0 0   0.0000 0 0 0 0
     37      0.00      0.00    324.00   -173.00  1.0200    100.00 0    567.00    100.00      0.00      0.00      0.00      0.00      0.00      0.00 0 0 0 0   0.0000 0 0 0 0
     38      0.00      0.00    498.00   -266.00  1.0200    100.00 0    872.00    208.00      0.00      0.00      0.00      0.00      0.00      0.00 0 0 0 0   0.0000 0 0 0 0
     49    338.80     21.69    347.00   -185.00  1.0200    100.00 1    607.00    320.00      0.00      0.00      0.00      0.00      0.00      0.00 0 0 0 0   0.0000 0 0 0 0
     52    171.52      1.35    938.00   -500.00  1.0200    100.00 1   1642.00    162.00      0.00      0.00      0.00      0.00      0.00      0.00 0 0 0 0   0.0000 0 0 0 0
     54    220.22     -0.34    312.00   -166.00  1.0200    100.00 1    546.00    208.00      0.00      0.00      0.00      0.00      0.00      0.00 0 0 0 0   0.0000 0 0 0 0
     56    440.44     16.68    416.00   -222.00  1.0200    100.00 1    728.00    416.00      0.00      0.00      0.00      0.00      0.00      0.00 0 0 0 0   0.0000 0 0 0 0
     69      0.00      0.00    297.00   -158.00  1.0200    100.00 0    520.00    149.00      0.00      0.00      0.00      0.00      0.00      0.00 0 0 0 0   0.0000 0 0 0 0
     72     89.99     72.99    150.00    -80.00  1.0200    100.00 1    263.00     85.00      0.00      0.00      0.00      0.00      0.00      0.00 0 0 0 0   0.0000 0 0 0 0
     76    460.55     31.03    504.00   -269.00  1.0200    100.00 1    882.00    435.00      0.00      0.00      0.00      0.00      0.00      0.00 0 0 0 0   0.0000 0 0 0 0
     78    137.64    -88.00    165.00    -88.00  1.0200    100.00 1    288.00    130.00      0.00      0.00      0.00      0.00      0.00      0.00 0 0 0 0   0.0000 0 0 0 0
     80    119.64   -144.20    330.00   -176.00  1.0200    100.00 1    578.00    113.00      0.00      0.00      0.00      0.00      0.00      0.00 0 0 0 0   0.0000 0 0 0 0
     82    186.34    -76.49    179.00    -95.00  1.0200    100.00 1    313.00    176.00      0.00      0.00      0.00      0.00      0.00      0.00 0 0 0 0   0.0000 0 0 0 0
     84      0.00      0.00    508.00   -271.00  1.0200    100.00 0    888.00    169.00      0.00      0.00      0.00      0.00      0.00      0.00 0 0 0 0   0.0000 0 0 0 0
    103    220.22    118.14    523.00   -279.00  1.0200    100.00 1    916.00    208.00      0.00      0.00      0.00      0.00      0.00      0.00 0 0 0 0   0.0000 0 0 0 0
    120      0.00      0.00    483.00   -258.00  1.0200    100.00 0    845.00    161.00      0.00      0.00      0.00      0.00      0.00      0.00 0 0 0 0   0.0000 0 0 0 0
    128    190.57     -3.73    216.00   -115.00  1.0200    100.00 1    378.00    180.00      0.00      0.00      0.00      0.00      0.00      0.00 0 0 0 0   0.0000 0 0 0 0
    130    121.76     62.36    153.00    -81.00  1.0200    100.00 1    267.00    115.00      0.00      0.00      0.00      0.00      0.00      0.00 0 0 0 0   0.0000 0 0 0 0
    141    928.52    168.49    967.00   -515.00  1.0200    100.00 1   1691.00    877.00      0.00      0.00      0.00      0.00      0.00      0.00 0 0 0 0   0.0000 0 0 0 0
    143    164.11     39.81    173.00    -92.00  1.0200    100.00 1    303.00    155.00      0.00      0.00      0.00      0.00      0.00      0.00 0 0 0 0   0.0000 0 0 0 0
    146    317.62    146.27    347.00   -185.00  1.0200    100.00 1    607.00    300.00      0.00      0.00      0.00      0.00      0.00      0.00 0 0 0 0   0.0000 0 0 0 0
    149    196.93     13.44    157.00    -83.00  1.0200    100.00 1    274.00    186.00      0.00      0.00      0.00      0.00      0.00      0.00 0 0 0 0   0.0000 0 0 0 0
    157      0.00      0.00    298.00   -159.00  1.0200    100.00 0    521.00    288.00      0.00      0.00      0.00      0.00      0.00      0.00 0 0 0 0   0.0000 0 0 0 0
    162    243.51    168.36    363.00   -194.00  1.0200    100.00 1    636.00    230.00      0.00      0.00      0.00      0.00      0.00      0.00 0 0 0 0   0.0000 0 0 0 0
    165      0.00      0.00    745.00   -397.00  1.0200    100.00 0   1304.00    782.00      0.00      0.00      0.00      0.00      0.00      0.00 0 0 0 0   0.0000 0 0 0 0
    166    293.27     54.33    474.00   -253.00  1.0200    100.00 1    830.00    277.00      0.00      0.00      0.00      0.00      0.00      0.00 0 0 0 0   0.0000 0 0 0 0
    175    221.28     15.20    358.00   -191.00  1.0200    100.00 1    626.00    209.00      0.00      0.00      0.00      0.00      0.00      0.00 0 0 0 0   0.0000 0 0 0 0
    176      0.00      0.00    153.00    -81.00  1.0200    100.00 0    267.00     86.00      0.00      0.00      0.00      0.00      0.00      0.00 0 0 0 0   0.0000 0 0 0 0
];

%% generator cost data
mpc.gencost = [
2 0 0 4   0.0000    0.001   17.500   450.00
2 0 0 4   0.0000    0.001   24.757  1505.67
2 0 0 4   0.0000    0.002   24.400  3342.77
2 0 0 4   0.0000    0.005   30.562  1114.42
2 0 0 4   0.0000    0.001   25.697  6313.07
2 0 0 4   0.0000    0.002   27.100  1297.89
2 0 0 4   0.0000    0.005   27.249   783.88
2 0 0 4   0.0000    0.002   26.174  1372.76
2 0 0 4   0.0000    0.006   26.053   655.13
2 0 0 4   0.0000    0.002   29.298  3418.85
2 0 0 4   0.0000    0.002   29.135  1458.22
2 0 0 4   0.0000    0.001   23.899  4734.80
2 0 0 4   0.0000    0.004   29.960  3677.05
2 0 0 4   0.0000    0.001   26.605  6691.85
2 0 0 4   0.0000    0.002   26.400  3342.77
2 0 0 4   0.0000    0.004   52.785  7415.02
2 0 0 4   0.0000    0.003   27.114  3844.19
2 0 0 4   0.0000    0.002   25.878  1390.96
2 0 0 4   0.0000    0.003   21.871  2841.36
2 0 0 4   0.0000    0.002   26.558  1284.25
2 0 0 4   0.0000    0.001   24.540  1581.44
2 0 0 4   0.0000    0.002   25.780  3523.95
2 0 0 4   0.0000    0.003   22.330  2325.41
2 0 0 4   0.0000    0.001   25.323  1978.07
2 0 0 4   0.0000    0.005   26.473   732.25
2 0 0 4   0.0000    0.002   26.356  1347.98
2 0 0 4   0.0000    0.008   27.364   550.89
2 0 0 4   0.0000    0.004   31.864  3610.20
2 0 0 4   0.0000    0.001   25.117  2036.75
2 0 0 4   0.0000    0.004   32.314  3777.33
2 0 0 4   0.0000    0.004   26.167   947.57
2 0 0 4   0.0000    0.006   27.791   710.04
2 0 0 4   0.0000    0.003   27.697  4313.07
2 0 0 4   0.0000    0.005   26.616   773.70
2 0 0 4   0.0000    0.002   26.010  1398.04
2 0 0 4   0.0000    0.006   27.475   721.30
2 0 0 4   0.0000    0.006   32.756  1215.71
2 0 0 4   0.0000    0.002   25.916  1460.47
2 0 0 4   0.0000    0.001   26.918  6534.03
2 0 0 4   0.0000    0.001   25.325  1860.51
2 0 0 4   0.0000    0.002   25.962  1438.95
2 0 0 4   0.0000    0.006   27.924   713.43
];

%% branch data
mpc.branch = [
      1       2  0.005978  0.120624   1.98515    414.51    414.51    414.51 1.00000    0.000 1    0.00    0.00      3.18   -103.00     -3.17   -109.31 0 0 0 0
      2      30  0.000000  0.018100   0.00000   1000.00   1000.00   1000.00 1.00000    0.000 1    0.00    0.00   -132.34     70.07    132.34    -66.26 0 0 0 0
      2      39  0.008680  0.060198   0.52937    530.03    530.03    530.03 1.00000    0.000 1    0.00    0.00    222.78    -36.23   -218.73      8.24 0 0 0 0
      2     139  0.003390  0.023178   0.20974    530.03    530.03    530.03 1.00000    0.000 1    0.00    0.00     59.35     -4.89    -59.24    -16.60 0 0 0 0
      2     181  0.007607  0.052755   0.46393    530.03    530.03    530.03 1.00000    0.000 1    0.00    0.00   -237.78     17.00    241.95    -37.72 0 0 0 0
      2     201  0.002742  0.018748   0.16965    530.03    530.03    530.03 1.00000    0.000 1    0.00    0.00     28.27     45.21    -28.18    -62.44 0 0 0 0
      3      18  0.003829  0.158129   0.09685    316.20    316.20    316.20 1.00000    0.000 1    0.00    0.00     66.91      6.41    -66.74     -9.34 0 0 0 0
      3     181  0.000638  0.030000   0.00000    400.00    400.00    400.00 1.00000    0.000 1    0.00    0.00    248.60    -50.00   -248.20     68.55 0 0 0 0
      4      75  0.016845  0.038117   0.00951    107.32    107.32    107.32 1.00000    0.000 1    0.00    0.00     11.15      7.77    -11.11     -8.67 0 0 0 0
      4     182  0.000889  0.040000   0.00000    300.00    300.00    300.00 1.00000    0.000 1    0.00    0.00    -56.37    -19.29     56.40     20.68 0 0 0 0
      5       8  0.002959  0.039331   0.08406    578.83    578.83    578.83 1.00000    0.000 1    0.00    0.00   -129.95    -12.06    130.44      9.89 0 0 0 0
      5     183  0.001261  0.046667   0.00000    150.00    150.00    150.00 1.00000    0.000 1    0.00    0.00     13.19    -20.64    -13.19     20.91 0 0 0 0
      5     184  0.045023  0.111012   0.17939    178.87    178.87    178.87 1.00000    0.000 1    0.00    0.00    -22.70     -4.51     22.94    -13.37 0 0 0 0
      5     207  0.001124  0.013276   0.03027    541.39    541.39    541.39 1.00000    0.000 1    0.00    0.00     93.08     21.88    -92.98    -23.77 0 0 0 0
      6       7  0.062002  0.145750   0.03365    107.32    107.32    107.32 1.00000    0.000 1    0.00    0.00     10.21     -9.78    -10.10      6.54 0 0 0 0
      6      31  0.000000  0.025000   0.00000   1100.00   1100.00   1100.00 1.00000    0.000 1    0.00    0.00      0.00      0.00      0.00      0.00 0 0 0 0
      6      70  0.033638  0.077688   0.01859    107.32    107.32    107.32 1.00000    0.000 1    0.00    0.00    -66.66     26.36     68.36    -24.36 0 0 0 0
      6     184  0.000297  0.014545   0.00000    550.00    550.00    550.00 1.00000    0.000 1    0.00    0.00     71.40    -20.56    -71.38     21.34 0 0 0 0
      6     185  0.000556  0.026667   0.00000    450.00    450.00    450.00 1.00000    0.000 1    0.00    0.00    -57.19     -8.74     57.21      9.61 0 0 0 0
      7     186  0.000336  0.017143   0.00000    700.00    700.00    700.00 1.00000    0.000 1    0.00    0.00     91.78      1.32    -91.75      0.06 0 0 0 0
      8      54  0.000326  0.005080   0.01216    665.28    665.28    665.28 1.00000    0.000 1    0.00    0.00   -184.88     12.09    184.99    -11.68 0 0 0 0
      8     187  0.000196  0.010000   0.00000    700.00    700.00    700.00 1.00000    0.000 1    0.00    0.00    192.06    -38.88   -191.99     42.57 0 0 0 0
    187       9  0.006838  0.047422   0.41703    530.03    530.03    530.03 1.00000    0.000 1    0.00    0.00      0.03    -43.91      0.00      0.00 0 0 0 0
     10      11  0.000315  0.008557   0.00495    566.01    566.01    566.01 1.00000    0.000 1    0.00    0.00    168.53      8.61   -168.44     -6.79 0 0 0 0
     10      32  0.000000  0.020000   0.00000   1000.00   1000.00   1000.00 1.00000    0.000 1    0.00    0.00      0.00      0.00      0.00      0.00 0 0 0 0
     10      70  0.005799  0.067267   0.02063    324.83    324.83    324.83 1.00000    0.000 1    0.00    0.00    120.58     -2.87   -119.77     10.13 0 0 0 0
     10     188  0.000073  0.003750   0.00000   3200.00   3200.00   3200.00 1.00000    0.000 1    0.00    0.00   1293.98      5.85  -1292.79     54.50 0 0 0 0
     12      11  0.001279  0.043500   0.00000    100.00    100.00    100.00 1.00000    0.000 1    0.00    0.00    -25.93      1.03     25.94     -0.75 0 0 0 0
     11     173  0.016673  0.124076   0.03486    237.35    237.35    237.35 1.00000    0.000 1    0.00    0.00     70.87      9.03    -70.04     -6.44 0 0 0 0
     11     189  0.001500  0.060000   0.00000    200.00    200.00    200.00 1.00000    0.000 1    0.00    0.00     71.64     -1.50    -71.56      4.47 0 0 0 0
     12      13  0.003529  0.120000   0.00000    100.00    100.00    100.00 1.00000    0.000 1    0.00    0.00     24.62     -1.41    -24.60      2.12 0 0 0 0
    188      13  0.000109  0.001949   0.02003   1045.73   1045.73   1045.73 1.00000    0.000 1    0.00    0.00    348.32    -27.15   -348.20     27.35 0 0 0 0
     13     190  0.000846  0.017908   0.26779   1060.07   1060.07   1060.07 1.00000    0.000 1    0.00    0.00    372.80    -29.47   -371.66     25.51 0 0 0 0
     14      15  0.036111  0.089040   0.14388    178.87    178.87    178.87 1.00000    0.000 1    0.00    0.00     40.64    -16.80    -40.04      3.31 0 0 0 0
     14     177  0.018818  0.067761   0.11459    229.46    229.46    229.46 1.00000    0.000 1    0.00    0.00     72.34    -12.81    -71.39      4.34 0 0 0 0
     14     190  0.000233  0.011667   0.00000    600.00    600.00    600.00 1.00000    0.000 1    0.00    0.00   -173.63     12.89    173.70     -9.51 0 0 0 0
     15      61  0.004135  0.027504   0.05200    353.36    353.36    353.36 1.00000    0.000 1    0.00    0.00     54.94    -16.72    -54.81     12.18 0 0 0 0
    184      15  0.003431  0.042042   0.08894    541.39    541.39    541.39 1.00000    0.000 1    0.00    0.00     66.78     -8.93    -66.63      1.54 0 0 0 0
     15     191  0.002059  0.070000   0.00000    100.00    100.00    100.00 1.00000    0.000 1    0.00    0.00    -24.59     -4.52     24.60      4.94 0 0 0 0
     16     149  0.014227  0.046950   0.01231    137.68    137.68    137.68 1.00000    0.000 1    0.00    0.00    -72.92      9.33     73.67     -8.13 0 0 0 0
     16     192  0.001000  0.040000   0.00000    200.00    200.00    200.00 1.00000    0.000 1    0.00    0.00    -11.61    -12.19     11.61     12.30 0 0 0 0
     16     193  0.001116  0.048000   0.00000    250.00    250.00    250.00 1.00000    0.000 1    0.00    0.00    -10.54    -16.78     10.55     16.97 0 0 0 0
     17      18  0.056699  0.194499   0.04709    137.68    137.68    137.68 1.00000    0.000 1    0.00    0.00    -14.85      0.49     14.98     -4.79 0 0 0 0
     17     145  0.046728  0.104525   0.02669    107.32    107.32    107.32 1.00000    0.000 1    0.00    0.00    -29.06      9.86     29.52    -11.54 0 0 0 0
     17     194  0.002162  0.080000   0.00000    150.00    150.00    150.00 1.00000    0.000 1    0.00    0.00      0.51    -23.22     -0.50     23.65 0 0 0 0
     19      20  0.000426  0.020000   0.00000    400.00    400.00    400.00 1.00000    0.000 1    0.00    0.00     92.18     31.21    -92.14    -29.31 0 0 0 0
     19      33  0.000700  0.014200   0.00000   1000.00   1000.00   1000.00 1.00000    0.000 1    0.00    0.00   -324.71   -132.64    325.58    150.18 0 0 0 0
     19      96  0.055097  0.129519   0.02990    107.32    107.32    107.32 1.00000    0.000 1    0.00    0.00    -28.43      6.62     28.91     -8.48 0 0 0 0
     19     105  0.000528  0.012761   0.00724    522.03    522.03    522.03 1.00000    0.000 1    0.00    0.00     72.23     26.81    -72.20    -26.77 0 0 0 0
     19     110  0.005086  0.023707   0.00609    173.53    173.53    173.53 1.00000    0.000 1    0.00    0.00     30.32      9.02    -30.27     -9.38 0 0 0 0
     19     118  0.000642  0.013449   0.00755    474.70    474.70    474.70 1.00000    0.000 1    0.00    0.00    160.95     31.92   -160.78    -29.03 0 0 0 0
     19     175  0.056202  0.251624   0.07017    173.53    173.53    173.53 1.00000    0.000 1    0.00    0.00    -60.01      5.92     62.10     -3.74 0 0 0 0
     19     195  0.002353  0.080000   0.00000    100.00    100.00    100.00 1.00000    0.000 1    0.00    0.00     11.93      3.98    -11.92     -3.85 0 0 0 0
     19     196  0.003529  0.120000   0.00000    100.00    100.00    100.00 1.00000    0.000 1    0.00    0.00     -8.98      2.32      8.98     -2.22 0 0 0 0
     20      34  0.000900  0.018000   0.00000    600.00    600.00    600.00 1.00000    0.000 1    0.00    0.00     40.51     12.87    -40.49    -12.54 0 0 0 0
     21     129  0.006980  0.035005   0.01005    187.39    187.39    187.39 1.00000    0.000 1    0.00    0.00     62.16      6.09    -61.89     -5.73 0 0 0 0
     21     130  0.007383  0.060698   0.01884    261.01    261.01    261.01 1.00000    0.000 1    0.00    0.00   -121.55    -12.62    122.65     19.73 0 0 0 0
     21     197  0.001441  0.053333   0.00000    150.00    150.00    150.00 1.00000    0.000 1    0.00    0.00      5.08     -6.44     -5.08      6.48 0 0 0 0
     21     198  0.001500  0.060000   0.00000    200.00    200.00    200.00 1.00000    0.000 1    0.00    0.00    -26.18     -4.88     26.19      5.30 0 0 0 0
     22      23  0.013985  0.034482   0.05572    178.87    178.87    178.87 1.00000    0.000 1    0.00    0.00    130.84     -3.88   -128.48      4.10 0 0 0 0
     22      35  0.000000  0.014300   0.00000   1950.00   1950.00   1950.00 1.00000    0.000 1    0.00    0.00   -978.28    -12.65    978.28    147.17 0 0 0 0
     22     199  0.000131  0.006667   0.00000   1050.00   1050.00   1050.00 1.00000    0.000 1    0.00    0.00    777.40     -1.73   -776.62     41.32 0 0 0 0
     23      24  0.043009  0.106048   0.17137    178.87    178.87    178.87 1.00000    0.000 1    0.00    0.00    -11.07    -30.16     11.33     13.46 0 0 0 0
     23      36  0.000500  0.027200   0.00000   1000.00   1000.00   1000.00 1.00000    0.000 1    0.00    0.00      0.00      0.00      0.00      0.00 0 0 0 0
     23      90  0.006901  0.020365   0.03648    206.75    206.75    206.75 1.00000    0.000 1    0.00    0.00     38.65      7.89    -38.54    -11.14 0 0 0 0
     23      91  0.012793  0.054395   0.09557    262.53    262.53    262.53 1.00000    0.000 1    0.00    0.00     51.18      5.56    -50.83    -13.35 0 0 0 0
     24     177  0.002078  0.014281   0.02528    353.36    353.36    353.36 1.00000    0.000 1    0.00    0.00     93.81     20.36    -93.62    -21.71 0 0 0 0
     24     200  0.000372  0.017500   0.00000    400.00    400.00    400.00 1.00000    0.000 1    0.00    0.00    141.55      6.98   -141.48     -3.60 0 0 0 0
     25      37  0.000600  0.023200   0.00000   1000.00   1000.00   1000.00 1.00000    0.000 1    0.00    0.00      0.00      0.00      0.00      0.00 0 0 0 0
     25     133  0.006133  0.048676   0.09258    395.58    395.58    395.58 1.00000    0.000 1    0.00    0.00     -3.11     12.25      3.13    -21.45 0 0 0 0
     25     168  0.018164  0.045274   0.07160    178.87    178.87    178.87 1.00000    0.000 1    0.00    0.00     30.05      2.74    -29.88     -9.54 0 0 0 0
     25     201  0.001261  0.046667   0.00000    150.00    150.00    150.00 1.00000    0.000 1    0.00    0.00    -70.40    -25.60     70.46     28.18 0 0 0 0
     26      42  0.007136  0.049490   0.43522    530.03    530.03    530.03 1.00000    0.000 1    0.00    0.00    157.82    -72.16   -155.94     39.17 0 0 0 0
     26      43  0.001333  0.009112   0.08245    530.03    530.03    530.03 1.00000    0.000 1    0.00    0.00    -55.71      0.31     55.75     -8.62 0 0 0 0
     26     202  0.010447  0.072454   0.63716    530.03    530.03    530.03 1.00000    0.000 1    0.00    0.00    -27.53    -31.44     27.61    -34.43 0 0 0 0
     27     160  0.022175  0.054676   0.08835    178.87    178.87    178.87 1.00000    0.000 1    0.00    0.00     92.08     -3.07    -90.27     -1.43 0 0 0 0
     27     202  0.000519  0.023333   0.00000    300.00    300.00    300.00 1.00000    0.000 1    0.00    0.00   -138.85    -11.22    138.94     15.59 0 0 0 0
     28      77  0.066564  0.156472   0.03612    107.32    107.32    107.32 1.00000    0.000 1    0.00    0.00     38.31    -11.82    -37.30     10.45 0 0 0 0
     28      88  0.001156  0.018601   0.00608    418.29    418.29    418.29 1.00000    0.000 1    0.00    0.00     78.81     13.34    -78.74    -12.83 0 0 0 0
     28     203  0.005926  0.160000   0.00000     50.00     50.00     50.00 1.00000    0.000 1    0.00    0.00     18.34     -2.50    -18.32      3.02 0 0 0 0
     28     204  0.003529  0.120000   0.00000    100.00    100.00    100.00 1.00000    0.000 1    0.00    0.00      9.34     -5.22     -9.33      5.35 0 0 0 0
     29      38  0.000800  0.015600   0.00000   1200.00   1200.00   1200.00 1.00000    0.000 1    0.00    0.00      0.00      0.00      0.00      0.00 0 0 0 0
     29      84  0.009549  0.091679   0.02681    283.00    283.00    283.00 1.00000    0.000 1    0.00    0.00    -10.55     -5.76     10.56      3.06 0 0 0 0
     29     205  0.000209  0.010667   0.00000    750.00    750.00    750.00 1.00000    0.000 1    0.00    0.00    -38.03     -5.23     38.03      5.38 0 0 0 0
     39      43  0.005771  0.040026   0.35199    530.03    530.03    530.03 1.00000    0.000 1    0.00    0.00    171.19    -22.21   -169.59     -3.50 0 0 0 0
     40      43  0.003602  0.023140   0.23770    530.03    530.03    530.03 1.00000    0.000 1    0.00    0.00    -49.31    -14.66     49.39     -9.49 0 0 0 0
    202      41  0.002711  0.018804   0.16536    530.03    530.03    530.03 1.00000    0.000 1    0.00    0.00     67.38      0.30    -67.26    -16.67 0 0 0 0
     42     167  0.006872  0.049342   0.40438    530.03    530.03    530.03 1.00000    0.000 1    0.00    0.00     80.31    -59.99    -79.80     19.64 0 0 0 0
     44      55  0.007424  0.027027   0.04470    229.46    229.46    229.46 1.00000    0.000 1    0.00    0.00    -18.02      0.04     18.04     -4.58 0 0 0 0
     44     206  0.000372  0.017500   0.00000    400.00    400.00    400.00 1.00000    0.000 1    0.00    0.00    -21.54    -12.90     21.55     13.01 0 0 0 0
     45      52  0.000887  0.008362   0.07659    652.53    652.53    652.53 1.00000    0.000 1    0.00    0.00    -33.54     -7.57     33.55     -0.31 0 0 0 0
    206      45  0.000420  0.002856   0.02611    530.03    530.03    530.03 1.00000    0.000 1    0.00    0.00     14.32     -3.91    -14.32      1.21 0 0 0 0
     45     212  0.001035  0.009761   0.08940    652.53    652.53    652.53 1.00000    0.000 1    0.00    0.00    -14.85    -10.63     14.86      1.36 0 0 0 0
     46      47  0.016826  0.106284   0.02894    212.01    212.01    212.01 1.00000    0.000 1    0.00    0.00     37.13      7.67    -36.89     -8.99 0 0 0 0
     46     207  0.000370  0.017778   0.00000    450.00    450.00    450.00 1.00000    0.000 1    0.00    0.00    -92.94    -22.16     92.98     23.77 0 0 0 0
     47      63  0.038101  0.089565   0.02068    107.32    107.32    107.32 1.00000    0.000 1    0.00    0.00    -11.70     -4.68     11.76      2.78 0 0 0 0
     48     150  0.003523  0.024436   0.21489    530.03    530.03    530.03 1.00000    0.000 1    0.00    0.00     59.57     -4.71    -59.45    -16.61 0 0 0 0
    182      48  0.003417  0.023699   0.20841    530.03    530.03    530.03 1.00000    0.000 1    0.00    0.00    121.07     -7.60   -120.59    -10.74 0 0 0 0
     49      65  0.001800  0.037712   0.02118    474.70    474.70    474.70 1.00000    0.000 1    0.00    0.00    100.04     17.65    -99.86    -16.08 0 0 0 0
     49     208  0.001000  0.040000   0.00000    200.00    200.00    200.00 1.00000    0.000 1    0.00    0.00    105.10     -4.98   -105.00      9.24 0 0 0 0
     49     209  0.001500  0.060000   0.00000    200.00    200.00    200.00 1.00000    0.000 1    0.00    0.00     98.82     -0.54    -98.68      6.17 0 0 0 0
     50      65  0.005258  0.037515   0.01148    237.35    237.35    237.35 1.00000    0.000 1    0.00    0.00    -63.48     -4.16     63.69      4.49 0 0 0 0
     50     210  0.003529  0.120000   0.00000    100.00    100.00    100.00 1.00000    0.000 1    0.00    0.00      4.39    -11.29     -4.38     11.46 0 0 0 0
     51      68  0.004060  0.037344   0.01192    283.00    283.00    283.00 1.00000    0.000 1    0.00    0.00    -27.71     14.33     27.75    -15.20 0 0 0 0
     51      72  0.000709  0.007194   0.00234    304.04    304.04    304.04 1.00000    0.000 1    0.00    0.00    -19.11    -27.72     19.12     27.56 0 0 0 0
    183      52  0.002047  0.021637   0.20301    707.51    707.51    707.51 1.00000    0.000 1    0.00    0.00    -38.17     -0.60     38.20    -20.23 0 0 0 0
    206      52  0.000643  0.006662   0.06506    707.51    707.51    707.51 1.00000    0.000 1    0.00    0.00    -35.87     -9.10     35.88      2.42 0 0 0 0
     53      57  0.006894  0.059124   0.01683    261.01    261.01    261.01 1.00000    0.000 1    0.00    0.00     22.70     17.09    -22.65    -18.31 0 0 0 0
     53      73  0.003976  0.033438   0.00991    261.01    261.01    261.01 1.00000    0.000 1    0.00    0.00      3.35    -22.92     -3.33     22.06 0 0 0 0
     53     211  0.000369  0.018462   0.00000    650.00    650.00    650.00 1.00000    0.000 1    0.00    0.00   -126.35    -17.96    126.40     20.91 0 0 0 0
     55      61  0.034539  0.120369   0.21762    229.46    229.46    229.46 1.00000    0.000 1    0.00    0.00     13.18    -15.84    -13.12     -6.50 0 0 0 0
    208      55  0.006202  0.018912   0.03169    206.75    206.75    206.75 1.00000    0.000 1    0.00    0.00     92.61     -9.79    -92.10      8.06 0 0 0 0
     55     212  0.001261  0.046667   0.00000    150.00    150.00    150.00 1.00000    0.000 1    0.00    0.00      0.64     -5.12     -0.64      5.13 0 0 0 0
    185      56  0.000908  0.009601   0.09009    707.51    707.51    707.51 1.00000    0.000 1    0.00    0.00     36.87    -37.65    -36.85     28.53 0 0 0 0
    191      56  0.000301  0.008151   0.12418   1246.50   1246.50   1246.50 1.00000    0.000 1    0.00    0.00   -406.84     26.81    407.32    -26.71 0 0 0 0
     57      60  0.018675  0.042258   0.01054    107.32    107.32    107.32 1.00000    0.000 1    0.00    0.00     -8.16      7.78      8.18     -8.78 0 0 0 0
     58      62  0.002141  0.014851   0.13060    530.03    530.03    530.03 1.00000    0.000 1    0.00    0.00     61.24      3.06    -61.16    -15.88 0 0 0 0
     58      66  0.001447  0.010038   0.08828    530.03    530.03    530.03 1.00000    0.000 1    0.00    0.00    -16.94    -14.92     16.95      5.88 0 0 0 0
    185      58  0.002185  0.015152   0.13324    530.03    530.03    530.03 1.00000    0.000 1    0.00    0.00    124.87      0.92   -124.54    -12.37 0 0 0 0
    191      59  0.000938  0.006385   0.05837    530.03    530.03    530.03 1.00000    0.000 1    0.00    0.00    128.94      2.90   -128.79     -7.96 0 0 0 0
     59     213  0.000907  0.006172   0.05642    530.03    530.03    530.03 1.00000    0.000 1    0.00    0.00     83.57     -6.41    -83.50      0.97 0 0 0 0
     60      63  0.017610  0.040671   0.00973    107.32    107.32    107.32 1.00000    0.000 1    0.00    0.00     21.10     -7.28    -21.01      6.51 0 0 0 0
     60      64  0.005655  0.040347   0.01235    237.35    237.35    237.35 1.00000    0.000 1    0.00    0.00    -82.20     -0.27     82.59      1.78 0 0 0 0
     61     143  0.002057  0.016137   0.03143    395.58    395.58    395.58 1.00000    0.000 1    0.00    0.00     -9.02     -7.63      9.02      4.38 0 0 0 0
    192      61  0.004667  0.025655   0.04713    312.32    312.32    312.32 1.00000    0.000 1    0.00    0.00    -94.63     15.32     95.05    -17.92 0 0 0 0
     61     213  0.000519  0.023333   0.00000    300.00    300.00    300.00 1.00000    0.000 1    0.00    0.00    -83.47      2.53     83.50     -0.97 0 0 0 0
     63      75  0.005417  0.046454   0.01323    261.01    261.01    261.01 1.00000    0.000 1    0.00    0.00    -34.69    -22.94     34.78     22.40 0 0 0 0
     64     214  0.000336  0.017143   0.00000    700.00    700.00    700.00 1.00000    0.000 1    0.00    0.00   -188.80    -30.59    188.92     36.83 0 0 0 0
     66      71  0.001271  0.008811   0.07749    530.03    530.03    530.03 1.00000    0.000 1    0.00    0.00    -59.96    -18.69     60.01     11.02 0 0 0 0
     67      68  0.002882  0.026509   0.00846    283.00    283.00    283.00 1.00000    0.000 1    0.00    0.00    -54.71    -13.55     54.80     13.52 0 0 0 0
     68     215  0.000336  0.017143   0.00000    700.00    700.00    700.00 1.00000    0.000 1    0.00    0.00   -150.60    -18.69    150.68     22.53 0 0 0 0
    189      69  0.001131  0.007735   0.06999    530.03    530.03    530.03 1.00000    0.000 1    0.00    0.00    121.71     23.16   -121.54    -29.25 0 0 0 0
     69     247  0.002929  0.020317   0.17866    530.03    530.03    530.03 1.00000    0.000 1    0.00    0.00     88.65     18.64    -88.40    -35.25 0 0 0 0
     71      76  0.001422  0.009863   0.08674    530.03    530.03    530.03 1.00000    0.000 1    0.00    0.00    -97.74    -22.53     97.87     14.47 0 0 0 0
     72      73  0.000275  0.004586   0.00284    424.03    424.03    424.03 1.00000    0.000 1    0.00    0.00     38.18     34.10    -38.18    -34.28 0 0 0 0
    182      74  0.000498  0.003455   0.03038    530.03    530.03    530.03 1.00000    0.000 1    0.00    0.00     12.78     46.86    -12.77    -49.95 0 0 0 0
    210      74  0.001292  0.011415   0.10343    623.25    623.25    623.25 1.00000    0.000 1    0.00    0.00    106.79    -15.53   -106.64      6.02 0 0 0 0
     74     216  0.000640  0.004357   0.03984    530.03    530.03    530.03 1.00000    0.000 1    0.00    0.00     73.69     28.71    -73.65    -32.58 0 0 0 0
     75     216  0.000638  0.030000   0.00000    400.00    400.00    400.00 1.00000    0.000 1    0.00    0.00    -73.61    -30.70     73.65     32.58 0 0 0 0
    190      76  0.001435  0.009955   0.08755    530.03    530.03    530.03 1.00000    0.000 1    0.00    0.00     84.62      2.57    -84.52    -11.01 0 0 0 0
     76     238  0.003386  0.047034   0.46520    868.25    868.25    868.25 1.00000    0.000 1    0.00    0.00    373.94      8.28   -369.35      7.61 0 0 0 0
     77      84  0.006198  0.069744   0.01841    304.04    304.04    304.04 1.00000    0.000 1    0.00    0.00    -28.20    -20.02     28.27     18.89 0 0 0 0
     77      89  0.016077  0.099621   0.02821    212.01    212.01    212.01 1.00000    0.000 1    0.00    0.00     47.16     13.91    -46.77    -14.35 0 0 0 0
     77     217  0.005926  0.160000   0.00000     50.00     50.00     50.00 1.00000    0.000 1    0.00    0.00    -11.46     -5.00     11.47      5.25 0 0 0 0
     77     218  0.003529  0.120000   0.00000    100.00    100.00    100.00 1.00000    0.000 1    0.00    0.00    -20.34    -12.91     20.36     13.58 0 0 0 0
     78      79  0.014099  0.097781   0.85988    511.35    511.35    511.35 1.00000    0.000 1    0.00    0.00     95.41    -87.55    -94.04     -0.31 0 0 0 0
     78     167  0.005724  0.038942   0.35603    530.03    530.03    530.03 1.00000    0.000 1    0.00    0.00    -20.90    -16.66     20.92    -22.42 0 0 0 0
     79      87  0.008106  0.052075   0.53493    530.03    530.03    530.03 1.00000    0.000 1    0.00    0.00      7.90    -22.69     -7.89    -39.20 0 0 0 0
     80      81  0.005975  0.042908   0.35164    530.03    530.03    530.03 1.00000    0.000 1    0.00    0.00    -22.86    -20.36     22.89    -16.09 0 0 0 0
     80      87  0.003558  0.071801   1.18166    696.37    696.37    696.37 1.00000    0.000 1    0.00    0.00     73.64   -139.57    -73.24     17.92 0 0 0 0
     81      82  0.007764  0.053845   0.47351    530.03    530.03    530.03 1.00000    0.000 1    0.00    0.00    -97.19     -3.86     97.92    -40.42 0 0 0 0
     82      83  0.007662  0.053138   0.46730    530.03    530.03    530.03 1.00000    0.000 1    0.00    0.00     39.82    -49.25    -39.66      1.27 0 0 0 0
     83     219  0.005009  0.034736   0.30546    530.03    530.03    530.03 1.00000    0.000 1    0.00    0.00    -11.58    -17.62     11.58    -14.79 0 0 0 0
     84     219  0.000224  0.011429   0.00000   1050.00   1050.00   1050.00 1.00000    0.000 1    0.00    0.00    -76.40    -33.31     76.42     34.06 0 0 0 0
     85     154  0.017306  0.084819   0.15179    289.22    289.22    289.22 1.00000    0.000 1    0.00    0.00    -53.51     14.46     54.08    -27.13 0 0 0 0
    217      85  0.004299  0.043533   0.08806    471.67    471.67    471.67 1.00000    0.000 1    0.00    0.00    -10.62     15.96     10.64    -24.84 0 0 0 0
     86      88  0.044131  0.145633   0.03817    137.68    137.68    137.68 1.00000    0.000 1    0.00    0.00    -18.03     -4.56     18.17      1.14 0 0 0 0
     86     169  0.025279  0.129580   0.03558    187.39    187.39    187.39 1.00000    0.000 1    0.00    0.00    -39.66      9.23     40.08    -10.64 0 0 0 0
     86     220  0.000744  0.032000   0.00000    250.00    250.00    250.00 1.00000    0.000 1    0.00    0.00    -14.05    -22.01     14.06     22.23 0 0 0 0
...